
---------- Begin Simulation Statistics ----------
final_tick                               371441890000                       # Number of ticks from beginning of simulation (restored from checkpoints and never reset)
host_inst_rate                                 105789                       # Simulator instruction rate (inst/s)
host_mem_usage                                 717964                       # Number of bytes of host memory used
host_op_rate                                   194838                       # Simulator op (including micro ops) rate (op/s)
host_seconds                                   945.28                       # Real time elapsed on the host
host_tick_rate                              392944146                       # Simulator tick rate (ticks/s)
sim_freq                                 1000000000000                       # Frequency of simulated ticks
sim_insts                                   100000001                       # Number of instructions simulated
sim_ops                                     184176409                       # Number of ops (including micro ops) simulated
sim_seconds                                  0.371442                       # Number of seconds simulated
sim_ticks                                371441890000                       # Number of ticks simulated
system.cpu.branchPred.BTBCorrect                    0                       # Number of correct BTB predictions (this stat may not work properly.
system.cpu.branchPred.BTBHitPct             99.955745                       # BTB Hit Percentage
system.cpu.branchPred.BTBHits                10561269                       # Number of BTB hits
system.cpu.branchPred.BTBLookups             10565945                       # Number of BTB lookups
system.cpu.branchPred.RASInCorrect                  5                       # Number of incorrect RAS predictions.
system.cpu.branchPred.condIncorrect              1454                       # Number of conditional branches incorrect
system.cpu.branchPred.condPredicted          10562273                       # Number of conditional branches predicted
system.cpu.branchPred.indirectHits                 29                       # Number of indirect target hits.
system.cpu.branchPred.indirectLookups             199                       # Number of indirect predictor lookups.
system.cpu.branchPred.indirectMisses              170                       # Number of indirect misses.
system.cpu.branchPred.lookups                10570552                       # Number of BP lookups
system.cpu.branchPred.usedRAS                    2705                       # Number of times the RAS was used to get a target.
system.cpu.branchPredindirectMispredicted          101                       # Number of mispredicted indirect branches.
system.cpu.committedInsts                   100000001                       # Number of instructions committed
system.cpu.committedOps                     184176409                       # Number of ops (including micro ops) committed
system.cpu.cpi                               3.714419                       # CPI: cycles per instruction
system.cpu.discardedOps                          4272                       # Number of ops (including micro ops) which were discarded before commit
system.cpu.dtb.accesses                             0                       # DTB accesses
system.cpu.dtb.align_faults                         0                       # Number of TLB faults due to alignment restrictions
system.cpu.dtb.domain_faults                        0                       # Number of TLB faults due to domain restrictions
system.cpu.dtb.flush_entries                        0                       # Number of entries that have been flushed from TLB
system.cpu.dtb.flush_tlb                            0                       # Number of times complete TLB was flushed
system.cpu.dtb.flush_tlb_asid                       0                       # Number of times TLB was flushed by ASID
system.cpu.dtb.flush_tlb_mva                        0                       # Number of times TLB was flushed by MVA
system.cpu.dtb.flush_tlb_mva_asid                   0                       # Number of times TLB was flushed by MVA & ASID
system.cpu.dtb.hits                                 0                       # DTB hits
system.cpu.dtb.inst_accesses                        0                       # ITB inst accesses
system.cpu.dtb.inst_hits                            0                       # ITB inst hits
system.cpu.dtb.inst_misses                          0                       # ITB inst misses
system.cpu.dtb.misses                               0                       # DTB misses
system.cpu.dtb.perms_faults                         0                       # Number of TLB faults due to permissions restrictions
system.cpu.dtb.prefetch_faults                      0                       # Number of TLB faults due to prefetch
system.cpu.dtb.read_accesses                        0                       # DTB read accesses
system.cpu.dtb.read_hits                            0                       # DTB read hits
system.cpu.dtb.read_misses                          0                       # DTB read misses
system.cpu.dtb.stage2_mmu.stage2_tlb.accesses            0                       # DTB accesses
system.cpu.dtb.stage2_mmu.stage2_tlb.align_faults            0                       # Number of TLB faults due to alignment restrictions
system.cpu.dtb.stage2_mmu.stage2_tlb.domain_faults            0                       # Number of TLB faults due to domain restrictions
system.cpu.dtb.stage2_mmu.stage2_tlb.flush_entries            0                       # Number of entries that have been flushed from TLB
system.cpu.dtb.stage2_mmu.stage2_tlb.flush_tlb            0                       # Number of times complete TLB was flushed
system.cpu.dtb.stage2_mmu.stage2_tlb.flush_tlb_asid            0                       # Number of times TLB was flushed by ASID
system.cpu.dtb.stage2_mmu.stage2_tlb.flush_tlb_mva            0                       # Number of times TLB was flushed by MVA
system.cpu.dtb.stage2_mmu.stage2_tlb.flush_tlb_mva_asid            0                       # Number of times TLB was flushed by MVA & ASID
system.cpu.dtb.stage2_mmu.stage2_tlb.hits            0                       # DTB hits
system.cpu.dtb.stage2_mmu.stage2_tlb.inst_accesses            0                       # ITB inst accesses
system.cpu.dtb.stage2_mmu.stage2_tlb.inst_hits            0                       # ITB inst hits
system.cpu.dtb.stage2_mmu.stage2_tlb.inst_misses            0                       # ITB inst misses
system.cpu.dtb.stage2_mmu.stage2_tlb.misses            0                       # DTB misses
system.cpu.dtb.stage2_mmu.stage2_tlb.perms_faults            0                       # Number of TLB faults due to permissions restrictions
system.cpu.dtb.stage2_mmu.stage2_tlb.prefetch_faults            0                       # Number of TLB faults due to prefetch
system.cpu.dtb.stage2_mmu.stage2_tlb.read_accesses            0                       # DTB read accesses
system.cpu.dtb.stage2_mmu.stage2_tlb.read_hits            0                       # DTB read hits
system.cpu.dtb.stage2_mmu.stage2_tlb.read_misses            0                       # DTB read misses
system.cpu.dtb.stage2_mmu.stage2_tlb.walker.walkRequestOrigin_Requested::Data            0                       # Table walker requests started/completed, data/inst
system.cpu.dtb.stage2_mmu.stage2_tlb.walker.walkRequestOrigin_Requested::Inst            0                       # Table walker requests started/completed, data/inst
system.cpu.dtb.stage2_mmu.stage2_tlb.walker.walkRequestOrigin_Requested::total            0                       # Table walker requests started/completed, data/inst
system.cpu.dtb.stage2_mmu.stage2_tlb.walker.walkRequestOrigin_Completed::Data            0                       # Table walker requests started/completed, data/inst
system.cpu.dtb.stage2_mmu.stage2_tlb.walker.walkRequestOrigin_Completed::Inst            0                       # Table walker requests started/completed, data/inst
system.cpu.dtb.stage2_mmu.stage2_tlb.walker.walkRequestOrigin_Completed::total            0                       # Table walker requests started/completed, data/inst
system.cpu.dtb.stage2_mmu.stage2_tlb.walker.walkRequestOrigin::total            0                       # Table walker requests started/completed, data/inst
system.cpu.dtb.stage2_mmu.stage2_tlb.walker.walks            0                       # Table walker walks requested
system.cpu.dtb.stage2_mmu.stage2_tlb.write_accesses            0                       # DTB write accesses
system.cpu.dtb.stage2_mmu.stage2_tlb.write_hits            0                       # DTB write hits
system.cpu.dtb.stage2_mmu.stage2_tlb.write_misses            0                       # DTB write misses
system.cpu.dtb.walker.walkRequestOrigin_Requested::Data            0                       # Table walker requests started/completed, data/inst
system.cpu.dtb.walker.walkRequestOrigin_Requested::Inst            0                       # Table walker requests started/completed, data/inst
system.cpu.dtb.walker.walkRequestOrigin_Requested::total            0                       # Table walker requests started/completed, data/inst
system.cpu.dtb.walker.walkRequestOrigin_Completed::Data            0                       # Table walker requests started/completed, data/inst
system.cpu.dtb.walker.walkRequestOrigin_Completed::Inst            0                       # Table walker requests started/completed, data/inst
system.cpu.dtb.walker.walkRequestOrigin_Completed::total            0                       # Table walker requests started/completed, data/inst
system.cpu.dtb.walker.walkRequestOrigin::total            0                       # Table walker requests started/completed, data/inst
system.cpu.dtb.walker.walks                         0                       # Table walker walks requested
system.cpu.dtb.write_accesses                       0                       # DTB write accesses
system.cpu.dtb.write_hits                           0                       # DTB write hits
system.cpu.dtb.write_misses                         0                       # DTB write misses
system.cpu.fetch2.amo_instructions                  0                       # Number of memory atomic instructions successfully decoded
system.cpu.fetch2.fp_instructions                   0                       # Number of floating point instructions successfully decoded
system.cpu.fetch2.int_instructions           44894154                       # Number of integer instructions successfully decoded
system.cpu.fetch2.load_instructions           2086333                       # Number of memory load instructions successfully decoded
system.cpu.fetch2.store_instructions           169188                       # Number of memory store instructions successfully decoded
system.cpu.fetch2.vec_instructions                  0                       # Number of SIMD instructions successfully decoded
system.cpu.idleCycles                       154187221                       # Total number of cycles that the object has spent stopped
system.cpu.ipc                               0.269221                       # IPC: instructions per cycle
system.cpu.itb.accesses                             0                       # DTB accesses
system.cpu.itb.align_faults                         0                       # Number of TLB faults due to alignment restrictions
system.cpu.itb.domain_faults                        0                       # Number of TLB faults due to domain restrictions
system.cpu.itb.flush_entries                        0                       # Number of entries that have been flushed from TLB
system.cpu.itb.flush_tlb                            0                       # Number of times complete TLB was flushed
system.cpu.itb.flush_tlb_asid                       0                       # Number of times TLB was flushed by ASID
system.cpu.itb.flush_tlb_mva                        0                       # Number of times TLB was flushed by MVA
system.cpu.itb.flush_tlb_mva_asid                   0                       # Number of times TLB was flushed by MVA & ASID
system.cpu.itb.hits                                 0                       # DTB hits
system.cpu.itb.inst_accesses                        0                       # ITB inst accesses
system.cpu.itb.inst_hits                            0                       # ITB inst hits
system.cpu.itb.inst_misses                          0                       # ITB inst misses
system.cpu.itb.misses                               0                       # DTB misses
system.cpu.itb.perms_faults                         0                       # Number of TLB faults due to permissions restrictions
system.cpu.itb.prefetch_faults                      0                       # Number of TLB faults due to prefetch
system.cpu.itb.read_accesses                        0                       # DTB read accesses
system.cpu.itb.read_hits                            0                       # DTB read hits
system.cpu.itb.read_misses                          0                       # DTB read misses
system.cpu.itb.stage2_mmu.stage2_tlb.accesses            0                       # DTB accesses
system.cpu.itb.stage2_mmu.stage2_tlb.align_faults            0                       # Number of TLB faults due to alignment restrictions
system.cpu.itb.stage2_mmu.stage2_tlb.domain_faults            0                       # Number of TLB faults due to domain restrictions
system.cpu.itb.stage2_mmu.stage2_tlb.flush_entries            0                       # Number of entries that have been flushed from TLB
system.cpu.itb.stage2_mmu.stage2_tlb.flush_tlb            0                       # Number of times complete TLB was flushed
system.cpu.itb.stage2_mmu.stage2_tlb.flush_tlb_asid            0                       # Number of times TLB was flushed by ASID
system.cpu.itb.stage2_mmu.stage2_tlb.flush_tlb_mva            0                       # Number of times TLB was flushed by MVA
system.cpu.itb.stage2_mmu.stage2_tlb.flush_tlb_mva_asid            0                       # Number of times TLB was flushed by MVA & ASID
system.cpu.itb.stage2_mmu.stage2_tlb.hits            0                       # DTB hits
system.cpu.itb.stage2_mmu.stage2_tlb.inst_accesses            0                       # ITB inst accesses
system.cpu.itb.stage2_mmu.stage2_tlb.inst_hits            0                       # ITB inst hits
system.cpu.itb.stage2_mmu.stage2_tlb.inst_misses            0                       # ITB inst misses
system.cpu.itb.stage2_mmu.stage2_tlb.misses            0                       # DTB misses
system.cpu.itb.stage2_mmu.stage2_tlb.perms_faults            0                       # Number of TLB faults due to permissions restrictions
system.cpu.itb.stage2_mmu.stage2_tlb.prefetch_faults            0                       # Number of TLB faults due to prefetch
system.cpu.itb.stage2_mmu.stage2_tlb.read_accesses            0                       # DTB read accesses
system.cpu.itb.stage2_mmu.stage2_tlb.read_hits            0                       # DTB read hits
system.cpu.itb.stage2_mmu.stage2_tlb.read_misses            0                       # DTB read misses
system.cpu.itb.stage2_mmu.stage2_tlb.walker.walkRequestOrigin_Requested::Data            0                       # Table walker requests started/completed, data/inst
system.cpu.itb.stage2_mmu.stage2_tlb.walker.walkRequestOrigin_Requested::Inst            0                       # Table walker requests started/completed, data/inst
system.cpu.itb.stage2_mmu.stage2_tlb.walker.walkRequestOrigin_Requested::total            0                       # Table walker requests started/completed, data/inst
system.cpu.itb.stage2_mmu.stage2_tlb.walker.walkRequestOrigin_Completed::Data            0                       # Table walker requests started/completed, data/inst
system.cpu.itb.stage2_mmu.stage2_tlb.walker.walkRequestOrigin_Completed::Inst            0                       # Table walker requests started/completed, data/inst
system.cpu.itb.stage2_mmu.stage2_tlb.walker.walkRequestOrigin_Completed::total            0                       # Table walker requests started/completed, data/inst
system.cpu.itb.stage2_mmu.stage2_tlb.walker.walkRequestOrigin::total            0                       # Table walker requests started/completed, data/inst
system.cpu.itb.stage2_mmu.stage2_tlb.walker.walks            0                       # Table walker walks requested
system.cpu.itb.stage2_mmu.stage2_tlb.write_accesses            0                       # DTB write accesses
system.cpu.itb.stage2_mmu.stage2_tlb.write_hits            0                       # DTB write hits
system.cpu.itb.stage2_mmu.stage2_tlb.write_misses            0                       # DTB write misses
system.cpu.itb.walker.walkRequestOrigin_Requested::Data            0                       # Table walker requests started/completed, data/inst
system.cpu.itb.walker.walkRequestOrigin_Requested::Inst            0                       # Table walker requests started/completed, data/inst
system.cpu.itb.walker.walkRequestOrigin_Requested::total            0                       # Table walker requests started/completed, data/inst
system.cpu.itb.walker.walkRequestOrigin_Completed::Data            0                       # Table walker requests started/completed, data/inst
system.cpu.itb.walker.walkRequestOrigin_Completed::Inst            0                       # Table walker requests started/completed, data/inst
system.cpu.itb.walker.walkRequestOrigin_Completed::total            0                       # Table walker requests started/completed, data/inst
system.cpu.itb.walker.walkRequestOrigin::total            0                       # Table walker requests started/completed, data/inst
system.cpu.itb.walker.walks                         0                       # Table walker walks requested
system.cpu.itb.write_accesses                       0                       # DTB write accesses
system.cpu.itb.write_hits                           0                       # DTB write hits
system.cpu.itb.write_misses                         0                       # DTB write misses
system.cpu.numCycles                        371441890                       # number of cpu cycles simulated
system.cpu.numFetchSuspends                         0                       # Number of times Execute suspended instruction fetching
system.cpu.numWorkItemsCompleted                    0                       # number of work items this cpu completed
system.cpu.numWorkItemsStarted                      0                       # number of work items this cpu started
system.cpu.op_class_0::No_OpClass                   0      0.00%      0.00% # Class of committed instruction
system.cpu.op_class_0::IntAlu                97640473     53.01%     53.01% # Class of committed instruction
system.cpu.op_class_0::IntMult                 114699      0.06%     53.08% # Class of committed instruction
system.cpu.op_class_0::IntDiv                       0      0.00%     53.08% # Class of committed instruction
system.cpu.op_class_0::FloatAdd                     0      0.00%     53.08% # Class of committed instruction
system.cpu.op_class_0::FloatCmp                     0      0.00%     53.08% # Class of committed instruction
system.cpu.op_class_0::FloatCvt                     0      0.00%     53.08% # Class of committed instruction
system.cpu.op_class_0::FloatMult                    0      0.00%     53.08% # Class of committed instruction
system.cpu.op_class_0::FloatMultAcc                 0      0.00%     53.08% # Class of committed instruction
system.cpu.op_class_0::FloatDiv                     0      0.00%     53.08% # Class of committed instruction
system.cpu.op_class_0::FloatMisc                    0      0.00%     53.08% # Class of committed instruction
system.cpu.op_class_0::FloatSqrt                    0      0.00%     53.08% # Class of committed instruction
system.cpu.op_class_0::SimdAdd                      8      0.00%     53.08% # Class of committed instruction
system.cpu.op_class_0::SimdAddAcc                   0      0.00%     53.08% # Class of committed instruction
system.cpu.op_class_0::SimdAlu                      8      0.00%     53.08% # Class of committed instruction
system.cpu.op_class_0::SimdCmp                      6      0.00%     53.08% # Class of committed instruction
system.cpu.op_class_0::SimdCvt                      0      0.00%     53.08% # Class of committed instruction
system.cpu.op_class_0::SimdMisc                     1      0.00%     53.08% # Class of committed instruction
system.cpu.op_class_0::SimdMult                     0      0.00%     53.08% # Class of committed instruction
system.cpu.op_class_0::SimdMultAcc                  0      0.00%     53.08% # Class of committed instruction
system.cpu.op_class_0::SimdShift                    0      0.00%     53.08% # Class of committed instruction
system.cpu.op_class_0::SimdShiftAcc                 0      0.00%     53.08% # Class of committed instruction
system.cpu.op_class_0::SimdDiv                      0      0.00%     53.08% # Class of committed instruction
system.cpu.op_class_0::SimdSqrt                     0      0.00%     53.08% # Class of committed instruction
system.cpu.op_class_0::SimdFloatAdd                 0      0.00%     53.08% # Class of committed instruction
system.cpu.op_class_0::SimdFloatAlu                 0      0.00%     53.08% # Class of committed instruction
system.cpu.op_class_0::SimdFloatCmp                 0      0.00%     53.08% # Class of committed instruction
system.cpu.op_class_0::SimdFloatCvt                 0      0.00%     53.08% # Class of committed instruction
system.cpu.op_class_0::SimdFloatDiv                 0      0.00%     53.08% # Class of committed instruction
system.cpu.op_class_0::SimdFloatMisc                6      0.00%     53.08% # Class of committed instruction
system.cpu.op_class_0::SimdFloatMult                0      0.00%     53.08% # Class of committed instruction
system.cpu.op_class_0::SimdFloatMultAcc             0      0.00%     53.08% # Class of committed instruction
system.cpu.op_class_0::SimdFloatSqrt                0      0.00%     53.08% # Class of committed instruction
system.cpu.op_class_0::SimdReduceAdd                0      0.00%     53.08% # Class of committed instruction
system.cpu.op_class_0::SimdReduceAlu                0      0.00%     53.08% # Class of committed instruction
system.cpu.op_class_0::SimdReduceCmp                0      0.00%     53.08% # Class of committed instruction
system.cpu.op_class_0::SimdFloatReduceAdd            0      0.00%     53.08% # Class of committed instruction
system.cpu.op_class_0::SimdFloatReduceCmp            0      0.00%     53.08% # Class of committed instruction
system.cpu.op_class_0::SimdAes                      0      0.00%     53.08% # Class of committed instruction
system.cpu.op_class_0::SimdAesMix                   0      0.00%     53.08% # Class of committed instruction
system.cpu.op_class_0::SimdSha1Hash                 0      0.00%     53.08% # Class of committed instruction
system.cpu.op_class_0::SimdSha1Hash2                0      0.00%     53.08% # Class of committed instruction
system.cpu.op_class_0::SimdSha256Hash               0      0.00%     53.08% # Class of committed instruction
system.cpu.op_class_0::SimdSha256Hash2              0      0.00%     53.08% # Class of committed instruction
system.cpu.op_class_0::SimdShaSigma2                0      0.00%     53.08% # Class of committed instruction
system.cpu.op_class_0::SimdShaSigma3                0      0.00%     53.08% # Class of committed instruction
system.cpu.op_class_0::SimdPredAlu                  0      0.00%     53.08% # Class of committed instruction
system.cpu.op_class_0::MemRead                2082588      1.13%     54.21% # Class of committed instruction
system.cpu.op_class_0::MemWrite              84338620     45.79%    100.00% # Class of committed instruction
system.cpu.op_class_0::FloatMemRead                 0      0.00%    100.00% # Class of committed instruction
system.cpu.op_class_0::FloatMemWrite                0      0.00%    100.00% # Class of committed instruction
system.cpu.op_class_0::IprAccess                    0      0.00%    100.00% # Class of committed instruction
system.cpu.op_class_0::InstPrefetch                 0      0.00%    100.00% # Class of committed instruction
system.cpu.op_class_0::total                184176409                       # Class of committed instruction
system.cpu.tickCycles                       217254669                       # Number of cycles that the object actually ticked
system.cpu.workload.numSyscalls                    19                       # Number of system calls
system.membus.snoop_filter.hit_multi_requests            0                       # Number of requests hitting in the snoop filter with multiple (>1) holders of the requested data.
system.membus.snoop_filter.hit_multi_snoops            0                       # Number of snoops hitting in the snoop filter with multiple (>1) holders of the requested data.
system.membus.snoop_filter.hit_single_requests      1312138                       # Number of requests hitting in the snoop filter with a single holder of the requested data.
system.membus.snoop_filter.hit_single_snoops            0                       # Number of snoops hitting in the snoop filter with a single holder of the requested data.
system.membus.snoop_filter.tot_requests       2628430                       # Total number of requests made to the snoop filter.
system.membus.snoop_filter.tot_snoops               0                       # Total number of snoops made to the snoop filter.
system.tol2bus.snoop_filter.hit_multi_requests           56                       # Number of requests hitting in the snoop filter with multiple (>1) holders of the requested data.
system.tol2bus.snoop_filter.hit_multi_snoops            0                       # Number of snoops hitting in the snoop filter with multiple (>1) holders of the requested data.
system.tol2bus.snoop_filter.hit_single_requests      1316321                       # Number of requests hitting in the snoop filter with a single holder of the requested data.
system.tol2bus.snoop_filter.hit_single_snoops          133                       # Number of snoops hitting in the snoop filter with a single holder of the requested data.
system.tol2bus.snoop_filter.tot_requests      2632834                       # Total number of requests made to the snoop filter.
system.tol2bus.snoop_filter.tot_snoops            133                       # Total number of snoops made to the snoop filter.
system.membus.pwrStateResidencyTicks::UNDEFINED 371441890000                       # Cumulative time (in ticks) in various power states
system.membus.trans_dist::ReadResp                413                       # Transaction distribution
system.membus.trans_dist::WritebackDirty      1311810                       # Transaction distribution
system.membus.trans_dist::CleanEvict              322                       # Transaction distribution
system.membus.trans_dist::ReadExReq           1315885                       # Transaction distribution
system.membus.trans_dist::ReadExResp          1315885                       # Transaction distribution
system.membus.trans_dist::ReadSharedReq           413                       # Transaction distribution
system.membus.pkt_count_system.l2.mem_side::system.mem_ctrls.port      3944728                       # Packet count per connected master and slave (bytes)
system.membus.pkt_count::total                3944728                       # Packet count per connected master and slave (bytes)
system.membus.pkt_size_system.l2.mem_side::system.mem_ctrls.port    672795648                       # Cumulative packet size per connected master and slave (bytes)
system.membus.pkt_size::total               672795648                       # Cumulative packet size per connected master and slave (bytes)
system.membus.snoops                                0                       # Total snoops (count)
system.membus.snoopTraffic                          0                       # Total snoop traffic (bytes)
system.membus.snoop_fanout::samples           1316298                       # Request fanout histogram
system.membus.snoop_fanout::mean                    0                       # Request fanout histogram
system.membus.snoop_fanout::stdev                   0                       # Request fanout histogram
system.membus.snoop_fanout::underflows              0      0.00%      0.00% # Request fanout histogram
system.membus.snoop_fanout::0                 1316298    100.00%    100.00% # Request fanout histogram
system.membus.snoop_fanout::1                       0      0.00%    100.00% # Request fanout histogram
system.membus.snoop_fanout::overflows               0      0.00%    100.00% # Request fanout histogram
system.membus.snoop_fanout::min_value               0                       # Request fanout histogram
system.membus.snoop_fanout::max_value               0                       # Request fanout histogram
system.membus.snoop_fanout::total             1316298                       # Request fanout histogram
system.membus.respLayer1.occupancy        22795620000                       # Layer occupancy (ticks)
system.membus.respLayer1.utilization              6.1                       # Layer utilization (%)
system.membus.reqLayer0.occupancy         23617390000                       # Layer occupancy (ticks)
system.membus.reqLayer0.utilization               6.4                       # Layer utilization (%)
system.tol2bus.pwrStateResidencyTicks::UNDEFINED 371441890000                       # Cumulative time (in ticks) in various power states
system.tol2bus.trans_dist::ReadResp               611                       # Transaction distribution
system.tol2bus.trans_dist::WritebackDirty      2627619                       # Transaction distribution
system.tol2bus.trans_dist::WritebackClean          355                       # Transaction distribution
system.tol2bus.trans_dist::CleanEvict             612                       # Transaction distribution
system.tol2bus.trans_dist::ReadExReq          1315902                       # Transaction distribution
system.tol2bus.trans_dist::ReadExResp         1315902                       # Transaction distribution
system.tol2bus.trans_dist::ReadCleanReq           419                       # Transaction distribution
system.tol2bus.trans_dist::ReadSharedReq          192                       # Transaction distribution
system.tol2bus.pkt_count_system.cpu.icache.mem_side::system.l2.cpu_side         1193                       # Packet count per connected master and slave (bytes)
system.tol2bus.pkt_count_system.cpu.dcache.mem_side::system.l2.cpu_side      3948154                       # Packet count per connected master and slave (bytes)
system.tol2bus.pkt_count::total               3949347                       # Packet count per connected master and slave (bytes)
system.tol2bus.pkt_size_system.cpu.icache.mem_side::system.l2.cpu_side       198144                       # Cumulative packet size per connected master and slave (bytes)
system.tol2bus.pkt_size_system.cpu.dcache.mem_side::system.l2.cpu_side    673767168                       # Cumulative packet size per connected master and slave (bytes)
system.tol2bus.pkt_size::total              673965312                       # Cumulative packet size per connected master and slave (bytes)
system.tol2bus.snoops                         1312265                       # Total snoops (count)
system.tol2bus.snoopTraffic                 335823360                       # Total snoop traffic (bytes)
system.tol2bus.snoop_fanout::samples          2628778                       # Request fanout histogram
system.tol2bus.snoop_fanout::mean            0.000072                       # Request fanout histogram
system.tol2bus.snoop_fanout::stdev           0.008479                       # Request fanout histogram
system.tol2bus.snoop_fanout::underflows             0      0.00%      0.00% # Request fanout histogram
system.tol2bus.snoop_fanout::0                2628589     99.99%     99.99% # Request fanout histogram
system.tol2bus.snoop_fanout::1                    189      0.01%    100.00% # Request fanout histogram
system.tol2bus.snoop_fanout::2                      0      0.00%    100.00% # Request fanout histogram
system.tol2bus.snoop_fanout::overflows              0      0.00%    100.00% # Request fanout histogram
system.tol2bus.snoop_fanout::min_value              0                       # Request fanout histogram
system.tol2bus.snoop_fanout::max_value              1                       # Request fanout histogram
system.tol2bus.snoop_fanout::total            2628778                       # Request fanout histogram
system.tol2bus.reqLayer0.occupancy        13162146000                       # Layer occupancy (ticks)
system.tol2bus.reqLayer0.utilization              3.5                       # Layer utilization (%)
system.tol2bus.respLayer1.occupancy       11844853992                       # Layer occupancy (ticks)
system.tol2bus.respLayer1.utilization             3.2                       # Layer utilization (%)
system.tol2bus.respLayer0.occupancy           3771000                       # Layer occupancy (ticks)
system.tol2bus.respLayer0.utilization             0.0                       # Layer utilization (%)
system.voltage_domain.voltage                       1                       # Voltage in Volts
system.clk_domain.clock                          1000                       # Clock period in ticks
system.l2.pwrStateResidencyTicks::UNDEFINED 371441890000                       # Cumulative time (in ticks) in various power states
system.l2.demand_hits::.cpu.inst                  141                       # number of demand (read+write) hits
system.l2.demand_hits::.cpu.data                   66                       # number of demand (read+write) hits
system.l2.demand_hits::total                      207                       # number of demand (read+write) hits
system.l2.overall_hits::.cpu.inst                 141                       # number of overall hits
system.l2.overall_hits::.cpu.data                  66                       # number of overall hits
system.l2.overall_hits::total                     207                       # number of overall hits
system.l2.demand_misses::.cpu.inst                278                       # number of demand (read+write) misses
system.l2.demand_misses::.cpu.data            1316028                       # number of demand (read+write) misses
system.l2.demand_misses::total                1316306                       # number of demand (read+write) misses
system.l2.overall_misses::.cpu.inst               278                       # number of overall misses
system.l2.overall_misses::.cpu.data           1316028                       # number of overall misses
system.l2.overall_misses::total               1316306                       # number of overall misses
system.l2.demand_miss_latency::.cpu.inst     33905000                       # number of demand (read+write) miss cycles
system.l2.demand_miss_latency::.cpu.data 164423572000                       # number of demand (read+write) miss cycles
system.l2.demand_miss_latency::total     164457477000                       # number of demand (read+write) miss cycles
system.l2.overall_miss_latency::.cpu.inst     33905000                       # number of overall miss cycles
system.l2.overall_miss_latency::.cpu.data 164423572000                       # number of overall miss cycles
system.l2.overall_miss_latency::total    164457477000                       # number of overall miss cycles
system.l2.demand_accesses::.cpu.inst              419                       # number of demand (read+write) accesses
system.l2.demand_accesses::.cpu.data          1316094                       # number of demand (read+write) accesses
system.l2.demand_accesses::total              1316513                       # number of demand (read+write) accesses
system.l2.overall_accesses::.cpu.inst             419                       # number of overall (read+write) accesses
system.l2.overall_accesses::.cpu.data         1316094                       # number of overall (read+write) accesses
system.l2.overall_accesses::total             1316513                       # number of overall (read+write) accesses
system.l2.demand_miss_rate::.cpu.inst        0.663484                       # miss rate for demand accesses
system.l2.demand_miss_rate::.cpu.data        0.999950                       # miss rate for demand accesses
system.l2.demand_miss_rate::total            0.999843                       # miss rate for demand accesses
system.l2.overall_miss_rate::.cpu.inst       0.663484                       # miss rate for overall accesses
system.l2.overall_miss_rate::.cpu.data       0.999950                       # miss rate for overall accesses
system.l2.overall_miss_rate::total           0.999843                       # miss rate for overall accesses
system.l2.demand_avg_miss_latency::.cpu.inst 121960.431655                       # average overall miss latency
system.l2.demand_avg_miss_latency::.cpu.data 124939.265730                       # average overall miss latency
system.l2.demand_avg_miss_latency::total 124938.636609                       # average overall miss latency
system.l2.overall_avg_miss_latency::.cpu.inst 121960.431655                       # average overall miss latency
system.l2.overall_avg_miss_latency::.cpu.data 124939.265730                       # average overall miss latency
system.l2.overall_avg_miss_latency::total 124938.636609                       # average overall miss latency
system.l2.blocked_cycles::no_mshrs                  0                       # number of cycles access was blocked
system.l2.blocked_cycles::no_targets                0                       # number of cycles access was blocked
system.l2.blocked::no_mshrs                         0                       # number of cycles access was blocked
system.l2.blocked::no_targets                       0                       # number of cycles access was blocked
system.l2.avg_blocked_cycles::no_mshrs            nan                       # average number of cycles each access was blocked
system.l2.avg_blocked_cycles::no_targets          nan                       # average number of cycles each access was blocked
system.l2.writebacks::.writebacks             1311810                       # number of writebacks
system.l2.writebacks::total                   1311810                       # number of writebacks
system.l2.demand_mshr_hits::.cpu.data               8                       # number of demand (read+write) MSHR hits
system.l2.demand_mshr_hits::total                   8                       # number of demand (read+write) MSHR hits
system.l2.overall_mshr_hits::.cpu.data              8                       # number of overall MSHR hits
system.l2.overall_mshr_hits::total                  8                       # number of overall MSHR hits
system.l2.demand_mshr_misses::.cpu.inst           278                       # number of demand (read+write) MSHR misses
system.l2.demand_mshr_misses::.cpu.data       1316020                       # number of demand (read+write) MSHR misses
system.l2.demand_mshr_misses::total           1316298                       # number of demand (read+write) MSHR misses
system.l2.overall_mshr_misses::.cpu.inst          278                       # number of overall MSHR misses
system.l2.overall_mshr_misses::.cpu.data      1316020                       # number of overall MSHR misses
system.l2.overall_mshr_misses::total          1316298                       # number of overall MSHR misses
system.l2.demand_mshr_miss_latency::.cpu.inst     28345000                       # number of demand (read+write) MSHR miss cycles
system.l2.demand_mshr_miss_latency::.cpu.data 138102348000                       # number of demand (read+write) MSHR miss cycles
system.l2.demand_mshr_miss_latency::total 138130693000                       # number of demand (read+write) MSHR miss cycles
system.l2.overall_mshr_miss_latency::.cpu.inst     28345000                       # number of overall MSHR miss cycles
system.l2.overall_mshr_miss_latency::.cpu.data 138102348000                       # number of overall MSHR miss cycles
system.l2.overall_mshr_miss_latency::total 138130693000                       # number of overall MSHR miss cycles
system.l2.demand_mshr_miss_rate::.cpu.inst     0.663484                       # mshr miss rate for demand accesses
system.l2.demand_mshr_miss_rate::.cpu.data     0.999944                       # mshr miss rate for demand accesses
system.l2.demand_mshr_miss_rate::total       0.999837                       # mshr miss rate for demand accesses
system.l2.overall_mshr_miss_rate::.cpu.inst     0.663484                       # mshr miss rate for overall accesses
system.l2.overall_mshr_miss_rate::.cpu.data     0.999944                       # mshr miss rate for overall accesses
system.l2.overall_mshr_miss_rate::total      0.999837                       # mshr miss rate for overall accesses
system.l2.demand_avg_mshr_miss_latency::.cpu.inst 101960.431655                       # average overall mshr miss latency
system.l2.demand_avg_mshr_miss_latency::.cpu.data 104939.399097                       # average overall mshr miss latency
system.l2.demand_avg_mshr_miss_latency::total 104938.769944                       # average overall mshr miss latency
system.l2.overall_avg_mshr_miss_latency::.cpu.inst 101960.431655                       # average overall mshr miss latency
system.l2.overall_avg_mshr_miss_latency::.cpu.data 104939.399097                       # average overall mshr miss latency
system.l2.overall_avg_mshr_miss_latency::total 104938.769944                       # average overall mshr miss latency
system.l2.replacements                        1312265                       # number of replacements
system.l2.WritebackDirty_hits::.writebacks      1315809                       # number of WritebackDirty hits
system.l2.WritebackDirty_hits::total          1315809                       # number of WritebackDirty hits
system.l2.WritebackDirty_accesses::.writebacks      1315809                       # number of WritebackDirty accesses(hits+misses)
system.l2.WritebackDirty_accesses::total      1315809                       # number of WritebackDirty accesses(hits+misses)
system.l2.WritebackClean_hits::.writebacks          332                       # number of WritebackClean hits
system.l2.WritebackClean_hits::total              332                       # number of WritebackClean hits
system.l2.WritebackClean_accesses::.writebacks          332                       # number of WritebackClean accesses(hits+misses)
system.l2.WritebackClean_accesses::total          332                       # number of WritebackClean accesses(hits+misses)
system.l2.ReadExReq_hits::.cpu.data                17                       # number of ReadExReq hits
system.l2.ReadExReq_hits::total                    17                       # number of ReadExReq hits
system.l2.ReadExReq_misses::.cpu.data         1315885                       # number of ReadExReq misses
system.l2.ReadExReq_misses::total             1315885                       # number of ReadExReq misses
system.l2.ReadExReq_miss_latency::.cpu.data 164405830000                       # number of ReadExReq miss cycles
system.l2.ReadExReq_miss_latency::total  164405830000                       # number of ReadExReq miss cycles
system.l2.ReadExReq_accesses::.cpu.data       1315902                       # number of ReadExReq accesses(hits+misses)
system.l2.ReadExReq_accesses::total           1315902                       # number of ReadExReq accesses(hits+misses)
system.l2.ReadExReq_miss_rate::.cpu.data     0.999987                       # miss rate for ReadExReq accesses
system.l2.ReadExReq_miss_rate::total         0.999987                       # miss rate for ReadExReq accesses
system.l2.ReadExReq_avg_miss_latency::.cpu.data 124939.360202                       # average ReadExReq miss latency
system.l2.ReadExReq_avg_miss_latency::total 124939.360202                       # average ReadExReq miss latency
system.l2.ReadExReq_mshr_misses::.cpu.data      1315885                       # number of ReadExReq MSHR misses
system.l2.ReadExReq_mshr_misses::total        1315885                       # number of ReadExReq MSHR misses
system.l2.ReadExReq_mshr_miss_latency::.cpu.data 138088130000                       # number of ReadExReq MSHR miss cycles
system.l2.ReadExReq_mshr_miss_latency::total 138088130000                       # number of ReadExReq MSHR miss cycles
system.l2.ReadExReq_mshr_miss_rate::.cpu.data     0.999987                       # mshr miss rate for ReadExReq accesses
system.l2.ReadExReq_mshr_miss_rate::total     0.999987                       # mshr miss rate for ReadExReq accesses
system.l2.ReadExReq_avg_mshr_miss_latency::.cpu.data 104939.360202                       # average ReadExReq mshr miss latency
system.l2.ReadExReq_avg_mshr_miss_latency::total 104939.360202                       # average ReadExReq mshr miss latency
system.l2.ReadCleanReq_hits::.cpu.inst            141                       # number of ReadCleanReq hits
system.l2.ReadCleanReq_hits::total                141                       # number of ReadCleanReq hits
system.l2.ReadCleanReq_misses::.cpu.inst          278                       # number of ReadCleanReq misses
system.l2.ReadCleanReq_misses::total              278                       # number of ReadCleanReq misses
system.l2.ReadCleanReq_miss_latency::.cpu.inst     33905000                       # number of ReadCleanReq miss cycles
system.l2.ReadCleanReq_miss_latency::total     33905000                       # number of ReadCleanReq miss cycles
system.l2.ReadCleanReq_accesses::.cpu.inst          419                       # number of ReadCleanReq accesses(hits+misses)
system.l2.ReadCleanReq_accesses::total            419                       # number of ReadCleanReq accesses(hits+misses)
system.l2.ReadCleanReq_miss_rate::.cpu.inst     0.663484                       # miss rate for ReadCleanReq accesses
system.l2.ReadCleanReq_miss_rate::total      0.663484                       # miss rate for ReadCleanReq accesses
system.l2.ReadCleanReq_avg_miss_latency::.cpu.inst 121960.431655                       # average ReadCleanReq miss latency
system.l2.ReadCleanReq_avg_miss_latency::total 121960.431655                       # average ReadCleanReq miss latency
system.l2.ReadCleanReq_mshr_misses::.cpu.inst          278                       # number of ReadCleanReq MSHR misses
system.l2.ReadCleanReq_mshr_misses::total          278                       # number of ReadCleanReq MSHR misses
system.l2.ReadCleanReq_mshr_miss_latency::.cpu.inst     28345000                       # number of ReadCleanReq MSHR miss cycles
system.l2.ReadCleanReq_mshr_miss_latency::total     28345000                       # number of ReadCleanReq MSHR miss cycles
system.l2.ReadCleanReq_mshr_miss_rate::.cpu.inst     0.663484                       # mshr miss rate for ReadCleanReq accesses
system.l2.ReadCleanReq_mshr_miss_rate::total     0.663484                       # mshr miss rate for ReadCleanReq accesses
system.l2.ReadCleanReq_avg_mshr_miss_latency::.cpu.inst 101960.431655                       # average ReadCleanReq mshr miss latency
system.l2.ReadCleanReq_avg_mshr_miss_latency::total 101960.431655                       # average ReadCleanReq mshr miss latency
system.l2.ReadSharedReq_hits::.cpu.data            49                       # number of ReadSharedReq hits
system.l2.ReadSharedReq_hits::total                49                       # number of ReadSharedReq hits
system.l2.ReadSharedReq_misses::.cpu.data          143                       # number of ReadSharedReq misses
system.l2.ReadSharedReq_misses::total             143                       # number of ReadSharedReq misses
system.l2.ReadSharedReq_miss_latency::.cpu.data     17742000                       # number of ReadSharedReq miss cycles
system.l2.ReadSharedReq_miss_latency::total     17742000                       # number of ReadSharedReq miss cycles
system.l2.ReadSharedReq_accesses::.cpu.data          192                       # number of ReadSharedReq accesses(hits+misses)
system.l2.ReadSharedReq_accesses::total           192                       # number of ReadSharedReq accesses(hits+misses)
system.l2.ReadSharedReq_miss_rate::.cpu.data     0.744792                       # miss rate for ReadSharedReq accesses
system.l2.ReadSharedReq_miss_rate::total     0.744792                       # miss rate for ReadSharedReq accesses
system.l2.ReadSharedReq_avg_miss_latency::.cpu.data 124069.930070                       # average ReadSharedReq miss latency
system.l2.ReadSharedReq_avg_miss_latency::total 124069.930070                       # average ReadSharedReq miss latency
system.l2.ReadSharedReq_mshr_hits::.cpu.data            8                       # number of ReadSharedReq MSHR hits
system.l2.ReadSharedReq_mshr_hits::total            8                       # number of ReadSharedReq MSHR hits
system.l2.ReadSharedReq_mshr_misses::.cpu.data          135                       # number of ReadSharedReq MSHR misses
system.l2.ReadSharedReq_mshr_misses::total          135                       # number of ReadSharedReq MSHR misses
system.l2.ReadSharedReq_mshr_miss_latency::.cpu.data     14218000                       # number of ReadSharedReq MSHR miss cycles
system.l2.ReadSharedReq_mshr_miss_latency::total     14218000                       # number of ReadSharedReq MSHR miss cycles
system.l2.ReadSharedReq_mshr_miss_rate::.cpu.data     0.703125                       # mshr miss rate for ReadSharedReq accesses
system.l2.ReadSharedReq_mshr_miss_rate::total     0.703125                       # mshr miss rate for ReadSharedReq accesses
system.l2.ReadSharedReq_avg_mshr_miss_latency::.cpu.data 105318.518519                       # average ReadSharedReq mshr miss latency
system.l2.ReadSharedReq_avg_mshr_miss_latency::total 105318.518519                       # average ReadSharedReq mshr miss latency
system.l2.tags.pwrStateResidencyTicks::UNDEFINED 371441890000                       # Cumulative time (in ticks) in various power states
system.l2.tags.tagsinuse                  4039.196576                       # Cycle average of tags in use
system.l2.tags.total_refs                     2632770                       # Total number of references to valid blocks.
system.l2.tags.sampled_refs                   1316361                       # Sample count of references to valid blocks.
system.l2.tags.avg_refs                      2.000036                       # Average number of references to valid blocks.
system.l2.tags.warmup_cycle                    102000                       # Cycle when the warmup percentage was hit.
system.l2.tags.occ_blocks::.writebacks       0.176086                       # Average occupied blocks per requestor
system.l2.tags.occ_blocks::.cpu.inst         3.345446                       # Average occupied blocks per requestor
system.l2.tags.occ_blocks::.cpu.data      4035.675044                       # Average occupied blocks per requestor
system.l2.tags.occ_percent::.writebacks      0.000043                       # Average percentage of cache occupancy
system.l2.tags.occ_percent::.cpu.inst        0.000817                       # Average percentage of cache occupancy
system.l2.tags.occ_percent::.cpu.data        0.985272                       # Average percentage of cache occupancy
system.l2.tags.occ_percent::total            0.986132                       # Average percentage of cache occupancy
system.l2.tags.occ_task_id_blocks::1024          4096                       # Occupied blocks per task id
system.l2.tags.age_task_id_blocks_1024::0           36                       # Occupied blocks per task id
system.l2.tags.age_task_id_blocks_1024::1          324                       # Occupied blocks per task id
system.l2.tags.age_task_id_blocks_1024::2         3237                       # Occupied blocks per task id
system.l2.tags.age_task_id_blocks_1024::3          499                       # Occupied blocks per task id
system.l2.tags.occ_task_id_percent::1024            1                       # Percentage of cache occupancy per task id
system.l2.tags.tag_accesses                  43440809                       # Number of tag accesses
system.l2.tags.data_accesses                 43440809                       # Number of data accesses
system.cpu_voltage_domain.voltage                   1                       # Voltage in Volts
system.mem_ctrls.pwrStateResidencyTicks::UNDEFINED 371441890000                       # Cumulative time (in ticks) in various power states
system.mem_ctrls.bytes_read::.cpu.inst          71168                       # Number of bytes read from this memory
system.mem_ctrls.bytes_read::.cpu.data      336901120                       # Number of bytes read from this memory
system.mem_ctrls.bytes_read::total          336972288                       # Number of bytes read from this memory
system.mem_ctrls.bytes_inst_read::.cpu.inst        71168                       # Number of instructions bytes read from this memory
system.mem_ctrls.bytes_inst_read::total         71168                       # Number of instructions bytes read from this memory
system.mem_ctrls.bytes_written::.writebacks    335823360                       # Number of bytes written to this memory
system.mem_ctrls.bytes_written::total       335823360                       # Number of bytes written to this memory
system.mem_ctrls.num_reads::.cpu.inst             278                       # Number of read requests responded to by this memory
system.mem_ctrls.num_reads::.cpu.data         1316020                       # Number of read requests responded to by this memory
system.mem_ctrls.num_reads::total             1316298                       # Number of read requests responded to by this memory
system.mem_ctrls.num_writes::.writebacks      1311810                       # Number of write requests responded to by this memory
system.mem_ctrls.num_writes::total            1311810                       # Number of write requests responded to by this memory
system.mem_ctrls.bw_read::.cpu.inst            191599                       # Total read bandwidth from this memory (bytes/s)
system.mem_ctrls.bw_read::.cpu.data         907008954                       # Total read bandwidth from this memory (bytes/s)
system.mem_ctrls.bw_read::total             907200553                       # Total read bandwidth from this memory (bytes/s)
system.mem_ctrls.bw_inst_read::.cpu.inst       191599                       # Instruction read bandwidth from this memory (bytes/s)
system.mem_ctrls.bw_inst_read::total           191599                       # Instruction read bandwidth from this memory (bytes/s)
system.mem_ctrls.bw_write::.writebacks      904107396                       # Write bandwidth from this memory (bytes/s)
system.mem_ctrls.bw_write::total            904107396                       # Write bandwidth from this memory (bytes/s)
system.mem_ctrls.bw_total::.writebacks      904107396                       # Total bandwidth to/from this memory (bytes/s)
system.mem_ctrls.bw_total::.cpu.inst           191599                       # Total bandwidth to/from this memory (bytes/s)
system.mem_ctrls.bw_total::.cpu.data        907008954                       # Total bandwidth to/from this memory (bytes/s)
system.mem_ctrls.bw_total::total           1811307949                       # Total bandwidth to/from this memory (bytes/s)
system.mem_ctrls.avgPriority_.writebacks::samples   5247240.00                       # Average QoS priority value for accepted requests
system.mem_ctrls.avgPriority_.cpu.inst::samples      1112.00                       # Average QoS priority value for accepted requests
system.mem_ctrls.avgPriority_.cpu.data::samples   5264080.00                       # Average QoS priority value for accepted requests
system.mem_ctrls.priorityMinLatency      0.000000018750                       # per QoS priority minimum request to response latency (s)
system.mem_ctrls.priorityMaxLatency      0.000217030750                       # per QoS priority maximum request to response latency (s)
system.mem_ctrls.numReadWriteTurnArounds       263515                       # Number of turnarounds from READ to WRITE
system.mem_ctrls.numWriteReadTurnArounds       263515                       # Number of turnarounds from WRITE to READ
system.mem_ctrls.numStayReadState             7968932                       # Number of times bus staying in READ state
system.mem_ctrls.numStayWriteState            5002284                       # Number of times bus staying in WRITE state
system.mem_ctrls.readReqs                     1316298                       # Number of read requests accepted
system.mem_ctrls.writeReqs                    1311810                       # Number of write requests accepted
system.mem_ctrls.readBursts                   5265192                       # Number of DRAM read bursts, including those serviced by the write queue
system.mem_ctrls.writeBursts                  5247240                       # Number of DRAM write bursts, including those merged in the write queue
system.mem_ctrls.servicedByWrQ                      0                       # Number of DRAM read bursts serviced by the write queue
system.mem_ctrls.mergedWrBursts                     0                       # Number of DRAM write bursts merged with an existing one
system.mem_ctrls.neitherReadNorWriteReqs            0                       # Number of requests that are neither read nor write
system.mem_ctrls.perBankRdBursts::0            329312                       # Per bank write bursts
system.mem_ctrls.perBankRdBursts::1            329188                       # Per bank write bursts
system.mem_ctrls.perBankRdBursts::2            329156                       # Per bank write bursts
system.mem_ctrls.perBankRdBursts::3            329112                       # Per bank write bursts
system.mem_ctrls.perBankRdBursts::4            329204                       # Per bank write bursts
system.mem_ctrls.perBankRdBursts::5            329016                       # Per bank write bursts
system.mem_ctrls.perBankRdBursts::6            328952                       # Per bank write bursts
system.mem_ctrls.perBankRdBursts::7            328900                       # Per bank write bursts
system.mem_ctrls.perBankRdBursts::8            328856                       # Per bank write bursts
system.mem_ctrls.perBankRdBursts::9            329152                       # Per bank write bursts
system.mem_ctrls.perBankRdBursts::10           329120                       # Per bank write bursts
system.mem_ctrls.perBankRdBursts::11           329000                       # Per bank write bursts
system.mem_ctrls.perBankRdBursts::12           328964                       # Per bank write bursts
system.mem_ctrls.perBankRdBursts::13           328924                       # Per bank write bursts
system.mem_ctrls.perBankRdBursts::14           329084                       # Per bank write bursts
system.mem_ctrls.perBankRdBursts::15           329252                       # Per bank write bursts
system.mem_ctrls.perBankWrBursts::0            328141                       # Per bank write bursts
system.mem_ctrls.perBankWrBursts::1            328056                       # Per bank write bursts
system.mem_ctrls.perBankWrBursts::2            328012                       # Per bank write bursts
system.mem_ctrls.perBankWrBursts::3            328024                       # Per bank write bursts
system.mem_ctrls.perBankWrBursts::4            328036                       # Per bank write bursts
system.mem_ctrls.perBankWrBursts::5            327920                       # Per bank write bursts
system.mem_ctrls.perBankWrBursts::6            327808                       # Per bank write bursts
system.mem_ctrls.perBankWrBursts::7            327808                       # Per bank write bursts
system.mem_ctrls.perBankWrBursts::8            327744                       # Per bank write bursts
system.mem_ctrls.perBankWrBursts::9            327976                       # Per bank write bursts
system.mem_ctrls.perBankWrBursts::10           327984                       # Per bank write bursts
system.mem_ctrls.perBankWrBursts::11           327960                       # Per bank write bursts
system.mem_ctrls.perBankWrBursts::12           327916                       # Per bank write bursts
system.mem_ctrls.perBankWrBursts::13           327852                       # Per bank write bursts
system.mem_ctrls.perBankWrBursts::14           327908                       # Per bank write bursts
system.mem_ctrls.perBankWrBursts::15           328076                       # Per bank write bursts
system.mem_ctrls.avgRdQLen                       4.01                       # Average read queue length when enqueuing
system.mem_ctrls.avgWrQLen                      26.90                       # Average write queue length when enqueuing
system.mem_ctrls.totQLat                 144105724000                       # Total ticks spent queuing
system.mem_ctrls.totBusLat                26325960000                       # Total ticks spent in databus transfers
system.mem_ctrls.totMemAccLat            242828074000                       # Total ticks spent from burst creation until serviced by the DRAM
system.mem_ctrls.avgQLat                     27369.51                       # Average queueing delay per DRAM burst
system.mem_ctrls.avgBusLat                    5000.00                       # Average bus latency per DRAM burst
system.mem_ctrls.avgMemAccLat                46119.51                       # Average memory access latency per DRAM burst
system.mem_ctrls.numRdRetry                         0                       # Number of times read queue was full causing retry
system.mem_ctrls.numWrRetry                         0                       # Number of times write queue was full causing retry
system.mem_ctrls.readRowHits                  4738022                       # Number of row buffer hits during reads
system.mem_ctrls.writeRowHits                 4715060                       # Number of row buffer hits during writes
system.mem_ctrls.readRowHitRate                 89.99                       # Row buffer hit rate for reads
system.mem_ctrls.writeRowHitRate                89.86                       # Row buffer hit rate for writes
system.mem_ctrls.readPktSize::0                     0                       # Read request sizes (log2)
system.mem_ctrls.readPktSize::1                     0                       # Read request sizes (log2)
system.mem_ctrls.readPktSize::2                     0                       # Read request sizes (log2)
system.mem_ctrls.readPktSize::3                     0                       # Read request sizes (log2)
system.mem_ctrls.readPktSize::4                     0                       # Read request sizes (log2)
system.mem_ctrls.readPktSize::5                     0                       # Read request sizes (log2)
system.mem_ctrls.readPktSize::6               5265192                       # Read request sizes (log2)
system.mem_ctrls.writePktSize::0                    0                       # Write request sizes (log2)
system.mem_ctrls.writePktSize::1                    0                       # Write request sizes (log2)
system.mem_ctrls.writePktSize::2                    0                       # Write request sizes (log2)
system.mem_ctrls.writePktSize::3                    0                       # Write request sizes (log2)
system.mem_ctrls.writePktSize::4                    0                       # Write request sizes (log2)
system.mem_ctrls.writePktSize::5                    0                       # Write request sizes (log2)
system.mem_ctrls.writePktSize::6              5247240                       # Write request sizes (log2)
system.mem_ctrls.rdQLenPdf::0                 1316086                       # What read queue length does an incoming req see
system.mem_ctrls.rdQLenPdf::1                 1316087                       # What read queue length does an incoming req see
system.mem_ctrls.rdQLenPdf::2                 1316181                       # What read queue length does an incoming req see
system.mem_ctrls.rdQLenPdf::3                 1316185                       # What read queue length does an incoming req see
system.mem_ctrls.rdQLenPdf::4                     208                       # What read queue length does an incoming req see
system.mem_ctrls.rdQLenPdf::5                     208                       # What read queue length does an incoming req see
system.mem_ctrls.rdQLenPdf::6                     115                       # What read queue length does an incoming req see
system.mem_ctrls.rdQLenPdf::7                     112                       # What read queue length does an incoming req see
system.mem_ctrls.rdQLenPdf::8                       4                       # What read queue length does an incoming req see
system.mem_ctrls.rdQLenPdf::9                       3                       # What read queue length does an incoming req see
system.mem_ctrls.rdQLenPdf::10                      2                       # What read queue length does an incoming req see
system.mem_ctrls.rdQLenPdf::11                      1                       # What read queue length does an incoming req see
system.mem_ctrls.rdQLenPdf::12                      0                       # What read queue length does an incoming req see
system.mem_ctrls.rdQLenPdf::13                      0                       # What read queue length does an incoming req see
system.mem_ctrls.rdQLenPdf::14                      0                       # What read queue length does an incoming req see
system.mem_ctrls.rdQLenPdf::15                      0                       # What read queue length does an incoming req see
system.mem_ctrls.rdQLenPdf::16                      0                       # What read queue length does an incoming req see
system.mem_ctrls.rdQLenPdf::17                      0                       # What read queue length does an incoming req see
system.mem_ctrls.rdQLenPdf::18                      0                       # What read queue length does an incoming req see
system.mem_ctrls.rdQLenPdf::19                      0                       # What read queue length does an incoming req see
system.mem_ctrls.rdQLenPdf::20                      0                       # What read queue length does an incoming req see
system.mem_ctrls.rdQLenPdf::21                      0                       # What read queue length does an incoming req see
system.mem_ctrls.rdQLenPdf::22                      0                       # What read queue length does an incoming req see
system.mem_ctrls.rdQLenPdf::23                      0                       # What read queue length does an incoming req see
system.mem_ctrls.rdQLenPdf::24                      0                       # What read queue length does an incoming req see
system.mem_ctrls.rdQLenPdf::25                      0                       # What read queue length does an incoming req see
system.mem_ctrls.rdQLenPdf::26                      0                       # What read queue length does an incoming req see
system.mem_ctrls.rdQLenPdf::27                      0                       # What read queue length does an incoming req see
system.mem_ctrls.rdQLenPdf::28                      0                       # What read queue length does an incoming req see
system.mem_ctrls.rdQLenPdf::29                      0                       # What read queue length does an incoming req see
system.mem_ctrls.rdQLenPdf::30                      0                       # What read queue length does an incoming req see
system.mem_ctrls.rdQLenPdf::31                      0                       # What read queue length does an incoming req see
system.mem_ctrls.wrQLenPdf::0                       1                       # What write queue length does an incoming req see
system.mem_ctrls.wrQLenPdf::1                       1                       # What write queue length does an incoming req see
system.mem_ctrls.wrQLenPdf::2                       1                       # What write queue length does an incoming req see
system.mem_ctrls.wrQLenPdf::3                       1                       # What write queue length does an incoming req see
system.mem_ctrls.wrQLenPdf::4                       1                       # What write queue length does an incoming req see
system.mem_ctrls.wrQLenPdf::5                       1                       # What write queue length does an incoming req see
system.mem_ctrls.wrQLenPdf::6                       1                       # What write queue length does an incoming req see
system.mem_ctrls.wrQLenPdf::7                       1                       # What write queue length does an incoming req see
system.mem_ctrls.wrQLenPdf::8                       1                       # What write queue length does an incoming req see
system.mem_ctrls.wrQLenPdf::9                       1                       # What write queue length does an incoming req see
system.mem_ctrls.wrQLenPdf::10                      1                       # What write queue length does an incoming req see
system.mem_ctrls.wrQLenPdf::11                      1                       # What write queue length does an incoming req see
system.mem_ctrls.wrQLenPdf::12                      1                       # What write queue length does an incoming req see
system.mem_ctrls.wrQLenPdf::13                      1                       # What write queue length does an incoming req see
system.mem_ctrls.wrQLenPdf::14                      1                       # What write queue length does an incoming req see
system.mem_ctrls.wrQLenPdf::15                 257635                       # What write queue length does an incoming req see
system.mem_ctrls.wrQLenPdf::16                 257641                       # What write queue length does an incoming req see
system.mem_ctrls.wrQLenPdf::17                 261372                       # What write queue length does an incoming req see
system.mem_ctrls.wrQLenPdf::18                 261398                       # What write queue length does an incoming req see
system.mem_ctrls.wrQLenPdf::19                 263547                       # What write queue length does an incoming req see
system.mem_ctrls.wrQLenPdf::20                 263555                       # What write queue length does an incoming req see
system.mem_ctrls.wrQLenPdf::21                 263534                       # What write queue length does an incoming req see
system.mem_ctrls.wrQLenPdf::22                 263569                       # What write queue length does an incoming req see
system.mem_ctrls.wrQLenPdf::23                 263581                       # What write queue length does an incoming req see
system.mem_ctrls.wrQLenPdf::24                 263574                       # What write queue length does an incoming req see
system.mem_ctrls.wrQLenPdf::25                 263573                       # What write queue length does an incoming req see
system.mem_ctrls.wrQLenPdf::26                 263525                       # What write queue length does an incoming req see
system.mem_ctrls.wrQLenPdf::27                 263519                       # What write queue length does an incoming req see
system.mem_ctrls.wrQLenPdf::28                 263520                       # What write queue length does an incoming req see
system.mem_ctrls.wrQLenPdf::29                 263516                       # What write queue length does an incoming req see
system.mem_ctrls.wrQLenPdf::30                 263516                       # What write queue length does an incoming req see
system.mem_ctrls.wrQLenPdf::31                 263516                       # What write queue length does an incoming req see
system.mem_ctrls.wrQLenPdf::32                 263515                       # What write queue length does an incoming req see
system.mem_ctrls.wrQLenPdf::33                 259810                       # What write queue length does an incoming req see
system.mem_ctrls.wrQLenPdf::34                 259797                       # What write queue length does an incoming req see
system.mem_ctrls.wrQLenPdf::35                      9                       # What write queue length does an incoming req see
system.mem_ctrls.wrQLenPdf::36                      1                       # What write queue length does an incoming req see
system.mem_ctrls.wrQLenPdf::37                      1                       # What write queue length does an incoming req see
system.mem_ctrls.wrQLenPdf::38                      1                       # What write queue length does an incoming req see
system.mem_ctrls.wrQLenPdf::39                      0                       # What write queue length does an incoming req see
system.mem_ctrls.wrQLenPdf::40                      0                       # What write queue length does an incoming req see
system.mem_ctrls.wrQLenPdf::41                      0                       # What write queue length does an incoming req see
system.mem_ctrls.wrQLenPdf::42                      0                       # What write queue length does an incoming req see
system.mem_ctrls.wrQLenPdf::43                      0                       # What write queue length does an incoming req see
system.mem_ctrls.wrQLenPdf::44                      0                       # What write queue length does an incoming req see
system.mem_ctrls.wrQLenPdf::45                      0                       # What write queue length does an incoming req see
system.mem_ctrls.wrQLenPdf::46                      0                       # What write queue length does an incoming req see
system.mem_ctrls.wrQLenPdf::47                      0                       # What write queue length does an incoming req see
system.mem_ctrls.wrQLenPdf::48                      0                       # What write queue length does an incoming req see
system.mem_ctrls.wrQLenPdf::49                      0                       # What write queue length does an incoming req see
system.mem_ctrls.wrQLenPdf::50                      0                       # What write queue length does an incoming req see
system.mem_ctrls.wrQLenPdf::51                      0                       # What write queue length does an incoming req see
system.mem_ctrls.wrQLenPdf::52                      0                       # What write queue length does an incoming req see
system.mem_ctrls.wrQLenPdf::53                      0                       # What write queue length does an incoming req see
system.mem_ctrls.wrQLenPdf::54                      0                       # What write queue length does an incoming req see
system.mem_ctrls.wrQLenPdf::55                      0                       # What write queue length does an incoming req see
system.mem_ctrls.wrQLenPdf::56                      0                       # What write queue length does an incoming req see
system.mem_ctrls.wrQLenPdf::57                      0                       # What write queue length does an incoming req see
system.mem_ctrls.wrQLenPdf::58                      0                       # What write queue length does an incoming req see
system.mem_ctrls.wrQLenPdf::59                      0                       # What write queue length does an incoming req see
system.mem_ctrls.wrQLenPdf::60                      0                       # What write queue length does an incoming req see
system.mem_ctrls.wrQLenPdf::61                      0                       # What write queue length does an incoming req see
system.mem_ctrls.wrQLenPdf::62                      0                       # What write queue length does an incoming req see
system.mem_ctrls.wrQLenPdf::63                      0                       # What write queue length does an incoming req see
system.mem_ctrls.bytesPerActivate::samples      1059329                       # Bytes accessed per row activation
system.mem_ctrls.bytesPerActivate::mean    635.113344                       # Bytes accessed per row activation
system.mem_ctrls.bytesPerActivate::gmean   505.007351                       # Bytes accessed per row activation
system.mem_ctrls.bytesPerActivate::stdev   372.239819                       # Bytes accessed per row activation
system.mem_ctrls.bytesPerActivate::0-127        23873      2.25%      2.25% # Bytes accessed per row activation
system.mem_ctrls.bytesPerActivate::128-255        20237      1.91%      4.16% # Bytes accessed per row activation
system.mem_ctrls.bytesPerActivate::256-383       426304     40.24%     44.41% # Bytes accessed per row activation
system.mem_ctrls.bytesPerActivate::384-511        10257      0.97%     45.38% # Bytes accessed per row activation
system.mem_ctrls.bytesPerActivate::512-639        54006      5.10%     50.47% # Bytes accessed per row activation
system.mem_ctrls.bytesPerActivate::640-767         6006      0.57%     51.04% # Bytes accessed per row activation
system.mem_ctrls.bytesPerActivate::768-895        39526      3.73%     54.77% # Bytes accessed per row activation
system.mem_ctrls.bytesPerActivate::896-1023        10890      1.03%     55.80% # Bytes accessed per row activation
system.mem_ctrls.bytesPerActivate::1024-1151       468230     44.20%    100.00% # Bytes accessed per row activation
system.mem_ctrls.bytesPerActivate::total      1059329                       # Bytes accessed per row activation
system.mem_ctrls.rdPerTurnAround::samples       263515                       # Reads before turning the bus around for writes
system.mem_ctrls.rdPerTurnAround::mean      19.980601                       # Reads before turning the bus around for writes
system.mem_ctrls.rdPerTurnAround::gmean     19.907764                       # Reads before turning the bus around for writes
system.mem_ctrls.rdPerTurnAround::stdev     29.240373                       # Reads before turning the bus around for writes
system.mem_ctrls.rdPerTurnAround::0-511        263514    100.00%    100.00% # Reads before turning the bus around for writes
system.mem_ctrls.rdPerTurnAround::14848-15359            1      0.00%    100.00% # Reads before turning the bus around for writes
system.mem_ctrls.rdPerTurnAround::total        263515                       # Reads before turning the bus around for writes
system.mem_ctrls.wrPerTurnAround::samples       263515                       # Writes before turning the bus around for reads
system.mem_ctrls.wrPerTurnAround::mean      19.912419                       # Writes before turning the bus around for reads
system.mem_ctrls.wrPerTurnAround::gmean     19.905681                       # Writes before turning the bus around for reads
system.mem_ctrls.wrPerTurnAround::stdev      0.492950                       # Writes before turning the bus around for reads
system.mem_ctrls.wrPerTurnAround::16             2157      0.82%      0.82% # Writes before turning the bus around for reads
system.mem_ctrls.wrPerTurnAround::17               10      0.00%      0.82% # Writes before turning the bus around for reads
system.mem_ctrls.wrPerTurnAround::18             7407      2.81%      3.63% # Writes before turning the bus around for reads
[...]
system.cpu.icache.ReadReq_miss_rate::.cpu.inst     0.000013                       # miss rate for ReadReq accesses
system.cpu.icache.ReadReq_miss_rate::total     0.000013                       # miss rate for ReadReq accesses
system.cpu.icache.ReadReq_avg_miss_latency::.cpu.inst 95069.212411                       # average ReadReq miss latency
system.cpu.icache.ReadReq_avg_miss_latency::total 95069.212411                       # average ReadReq miss latency
system.cpu.icache.ReadReq_mshr_misses::.cpu.inst          419                       # number of ReadReq MSHR misses
system.cpu.icache.ReadReq_mshr_misses::total          419                       # number of ReadReq MSHR misses
system.cpu.icache.ReadReq_mshr_miss_latency::.cpu.inst     38996000                       # number of ReadReq MSHR miss cycles
system.cpu.icache.ReadReq_mshr_miss_latency::total     38996000                       # number of ReadReq MSHR miss cycles
system.cpu.icache.ReadReq_mshr_miss_rate::.cpu.inst     0.000013                       # mshr miss rate for ReadReq accesses
system.cpu.icache.ReadReq_mshr_miss_rate::total     0.000013                       # mshr miss rate for ReadReq accesses
system.cpu.icache.ReadReq_avg_mshr_miss_latency::.cpu.inst 93069.212411                       # average ReadReq mshr miss latency
system.cpu.icache.ReadReq_avg_mshr_miss_latency::total 93069.212411                       # average ReadReq mshr miss latency
system.cpu.icache.tags.pwrStateResidencyTicks::UNDEFINED 371441890000                       # Cumulative time (in ticks) in various power states
system.cpu.icache.tags.tagsinuse            63.998992                       # Cycle average of tags in use
system.cpu.icache.tags.total_refs            31735463                       # Total number of references to valid blocks.
system.cpu.icache.tags.sampled_refs               419                       # Sample count of references to valid blocks.
system.cpu.icache.tags.avg_refs          75740.961814                       # Average number of references to valid blocks.
system.cpu.icache.tags.warmup_cycle            123000                       # Cycle when the warmup percentage was hit.
system.cpu.icache.tags.occ_blocks::.cpu.inst    63.998992                       # Average occupied blocks per requestor
system.cpu.icache.tags.occ_percent::.cpu.inst     0.999984                       # Average percentage of cache occupancy
system.cpu.icache.tags.occ_percent::total     0.999984                       # Average percentage of cache occupancy
system.cpu.icache.tags.occ_task_id_blocks::1024           64                       # Occupied blocks per task id
system.cpu.icache.tags.age_task_id_blocks_1024::4           64                       # Occupied blocks per task id
system.cpu.icache.tags.occ_task_id_percent::1024            1                       # Percentage of cache occupancy per task id
system.cpu.icache.tags.tag_accesses         507767827                       # Number of tag accesses
system.cpu.icache.tags.data_accesses        507767827                       # Number of data accesses
system.cpu.dtb.walker.pwrStateResidencyTicks::UNDEFINED 371441890000                       # Cumulative time (in ticks) in various power states
system.cpu.dtb.stage2_mmu.stage2_tlb.walker.pwrStateResidencyTicks::UNDEFINED 371441890000                       # Cumulative time (in ticks) in various power states
system.cpu.dcache.pwrStateResidencyTicks::UNDEFINED 371441890000                       # Cumulative time (in ticks) in various power states
system.cpu.dcache.demand_hits::.cpu.data     83750818                       # number of demand (read+write) hits
system.cpu.dcache.demand_hits::total         83750818                       # number of demand (read+write) hits
system.cpu.dcache.overall_hits::.cpu.data     83750866                       # number of overall hits
system.cpu.dcache.overall_hits::total        83750866                       # number of overall hits
system.cpu.dcache.demand_misses::.cpu.data      2631251                       # number of demand (read+write) misses
system.cpu.dcache.demand_misses::total        2631251                       # number of demand (read+write) misses
system.cpu.dcache.overall_misses::.cpu.data      2631274                       # number of overall misses
system.cpu.dcache.overall_misses::total       2631274                       # number of overall misses
system.cpu.dcache.demand_miss_latency::.cpu.data 351099582000                       # number of demand (read+write) miss cycles
system.cpu.dcache.demand_miss_latency::total 351099582000                       # number of demand (read+write) miss cycles
system.cpu.dcache.overall_miss_latency::.cpu.data 351099582000                       # number of overall miss cycles
system.cpu.dcache.overall_miss_latency::total 351099582000                       # number of overall miss cycles
system.cpu.dcache.demand_accesses::.cpu.data     86382069                       # number of demand (read+write) accesses
system.cpu.dcache.demand_accesses::total     86382069                       # number of demand (read+write) accesses
system.cpu.dcache.overall_accesses::.cpu.data     86382140                       # number of overall (read+write) accesses
system.cpu.dcache.overall_accesses::total     86382140                       # number of overall (read+write) accesses
system.cpu.dcache.demand_miss_rate::.cpu.data     0.030461                       # miss rate for demand accesses
system.cpu.dcache.demand_miss_rate::total     0.030461                       # miss rate for demand accesses
system.cpu.dcache.overall_miss_rate::.cpu.data     0.030461                       # miss rate for overall accesses
system.cpu.dcache.overall_miss_rate::total     0.030461                       # miss rate for overall accesses
system.cpu.dcache.demand_avg_miss_latency::.cpu.data 133434.469764                       # average overall miss latency
system.cpu.dcache.demand_avg_miss_latency::total 133434.469764                       # average overall miss latency
system.cpu.dcache.overall_avg_miss_latency::.cpu.data 133433.303411                       # average overall miss latency
system.cpu.dcache.overall_avg_miss_latency::total 133433.303411                       # average overall miss latency
system.cpu.dcache.blocked_cycles::no_mshrs            0                       # number of cycles access was blocked
system.cpu.dcache.blocked_cycles::no_targets            0                       # number of cycles access was blocked
system.cpu.dcache.blocked::no_mshrs                 0                       # number of cycles access was blocked
system.cpu.dcache.blocked::no_targets               0                       # number of cycles access was blocked
system.cpu.dcache.avg_blocked_cycles::no_mshrs          nan                       # average number of cycles each access was blocked
system.cpu.dcache.avg_blocked_cycles::no_targets          nan                       # average number of cycles each access was blocked
system.cpu.dcache.writebacks::.writebacks      1315809                       # number of writebacks
system.cpu.dcache.writebacks::total           1315809                       # number of writebacks
system.cpu.dcache.demand_mshr_hits::.cpu.data      1315169                       # number of demand (read+write) MSHR hits
system.cpu.dcache.demand_mshr_hits::total      1315169                       # number of demand (read+write) MSHR hits
system.cpu.dcache.overall_mshr_hits::.cpu.data      1315169                       # number of overall MSHR hits
system.cpu.dcache.overall_mshr_hits::total      1315169                       # number of overall MSHR hits
system.cpu.dcache.demand_mshr_misses::.cpu.data      1316082                       # number of demand (read+write) MSHR misses
system.cpu.dcache.demand_mshr_misses::total      1316082                       # number of demand (read+write) MSHR misses
system.cpu.dcache.overall_mshr_misses::.cpu.data      1316094                       # number of overall MSHR misses
system.cpu.dcache.overall_mshr_misses::total      1316094                       # number of overall MSHR misses
system.cpu.dcache.demand_mshr_miss_latency::.cpu.data 168372063000                       # number of demand (read+write) MSHR miss cycles
system.cpu.dcache.demand_mshr_miss_latency::total 168372063000                       # number of demand (read+write) MSHR miss cycles
system.cpu.dcache.overall_mshr_miss_latency::.cpu.data 168373577000                       # number of overall MSHR miss cycles
system.cpu.dcache.overall_mshr_miss_latency::total 168373577000                       # number of overall MSHR miss cycles
system.cpu.dcache.demand_mshr_miss_rate::.cpu.data     0.015236                       # mshr miss rate for demand accesses
system.cpu.dcache.demand_mshr_miss_rate::total     0.015236                       # mshr miss rate for demand accesses
system.cpu.dcache.overall_mshr_miss_rate::.cpu.data     0.015236                       # mshr miss rate for overall accesses
system.cpu.dcache.overall_mshr_miss_rate::total     0.015236                       # mshr miss rate for overall accesses
system.cpu.dcache.demand_avg_mshr_miss_latency::.cpu.data 127934.325521                       # average overall mshr miss latency
system.cpu.dcache.demand_avg_mshr_miss_latency::total 127934.325521                       # average overall mshr miss latency
system.cpu.dcache.overall_avg_mshr_miss_latency::.cpu.data 127934.309403                       # average overall mshr miss latency
system.cpu.dcache.overall_avg_mshr_miss_latency::total 127934.309403                       # average overall mshr miss latency
system.cpu.dcache.replacements                1315966                       # number of replacements
system.cpu.dcache.ReadReq_hits::.cpu.data      2043621                       # number of ReadReq hits
system.cpu.dcache.ReadReq_hits::total         2043621                       # number of ReadReq hits
system.cpu.dcache.ReadReq_misses::.cpu.data          199                       # number of ReadReq misses
system.cpu.dcache.ReadReq_misses::total           199                       # number of ReadReq misses
system.cpu.dcache.ReadReq_miss_latency::.cpu.data     20438000                       # number of ReadReq miss cycles
system.cpu.dcache.ReadReq_miss_latency::total     20438000                       # number of ReadReq miss cycles
system.cpu.dcache.ReadReq_accesses::.cpu.data      2043820                       # number of ReadReq accesses(hits+misses)
system.cpu.dcache.ReadReq_accesses::total      2043820                       # number of ReadReq accesses(hits+misses)
system.cpu.dcache.ReadReq_miss_rate::.cpu.data     0.000097                       # miss rate for ReadReq accesses
system.cpu.dcache.ReadReq_miss_rate::total     0.000097                       # miss rate for ReadReq accesses
system.cpu.dcache.ReadReq_avg_miss_latency::.cpu.data 102703.517588                       # average ReadReq miss latency
system.cpu.dcache.ReadReq_avg_miss_latency::total 102703.517588                       # average ReadReq miss latency
system.cpu.dcache.ReadReq_mshr_hits::.cpu.data           19                       # number of ReadReq MSHR hits
system.cpu.dcache.ReadReq_mshr_hits::total           19                       # number of ReadReq MSHR hits
system.cpu.dcache.ReadReq_mshr_misses::.cpu.data          180                       # number of ReadReq MSHR misses
system.cpu.dcache.ReadReq_mshr_misses::total          180                       # number of ReadReq MSHR misses
system.cpu.dcache.ReadReq_mshr_miss_latency::.cpu.data     18137000                       # number of ReadReq MSHR miss cycles
system.cpu.dcache.ReadReq_mshr_miss_latency::total     18137000                       # number of ReadReq MSHR miss cycles
system.cpu.dcache.ReadReq_mshr_miss_rate::.cpu.data     0.000088                       # mshr miss rate for ReadReq accesses
system.cpu.dcache.ReadReq_mshr_miss_rate::total     0.000088                       # mshr miss rate for ReadReq accesses
system.cpu.dcache.ReadReq_avg_mshr_miss_latency::.cpu.data 100761.111111                       # average ReadReq mshr miss latency
system.cpu.dcache.ReadReq_avg_mshr_miss_latency::total 100761.111111                       # average ReadReq mshr miss latency
system.cpu.dcache.WriteReq_hits::.cpu.data     81707197                       # number of WriteReq hits
system.cpu.dcache.WriteReq_hits::total       81707197                       # number of WriteReq hits
system.cpu.dcache.WriteReq_misses::.cpu.data      2631052                       # number of WriteReq misses
system.cpu.dcache.WriteReq_misses::total      2631052                       # number of WriteReq misses
system.cpu.dcache.WriteReq_miss_latency::.cpu.data 351079144000                       # number of WriteReq miss cycles
system.cpu.dcache.WriteReq_miss_latency::total 351079144000                       # number of WriteReq miss cycles
system.cpu.dcache.WriteReq_accesses::.cpu.data     84338249                       # number of WriteReq accesses(hits+misses)
system.cpu.dcache.WriteReq_accesses::total     84338249                       # number of WriteReq accesses(hits+misses)
system.cpu.dcache.WriteReq_miss_rate::.cpu.data     0.031196                       # miss rate for WriteReq accesses
system.cpu.dcache.WriteReq_miss_rate::total     0.031196                       # miss rate for WriteReq accesses
system.cpu.dcache.WriteReq_avg_miss_latency::.cpu.data 133436.794104                       # average WriteReq miss latency
system.cpu.dcache.WriteReq_avg_miss_latency::total 133436.794104                       # average WriteReq miss latency
system.cpu.dcache.WriteReq_mshr_hits::.cpu.data      1315150                       # number of WriteReq MSHR hits
system.cpu.dcache.WriteReq_mshr_hits::total      1315150                       # number of WriteReq MSHR hits
system.cpu.dcache.WriteReq_mshr_misses::.cpu.data      1315902                       # number of WriteReq MSHR misses
system.cpu.dcache.WriteReq_mshr_misses::total      1315902                       # number of WriteReq MSHR misses
system.cpu.dcache.WriteReq_mshr_miss_latency::.cpu.data 168353926000                       # number of WriteReq MSHR miss cycles
system.cpu.dcache.WriteReq_mshr_miss_latency::total 168353926000                       # number of WriteReq MSHR miss cycles
system.cpu.dcache.WriteReq_mshr_miss_rate::.cpu.data     0.015603                       # mshr miss rate for WriteReq accesses
system.cpu.dcache.WriteReq_mshr_miss_rate::total     0.015603                       # mshr miss rate for WriteReq accesses
system.cpu.dcache.WriteReq_avg_mshr_miss_latency::.cpu.data 127938.042499                       # average WriteReq mshr miss latency
system.cpu.dcache.WriteReq_avg_mshr_miss_latency::total 127938.042499                       # average WriteReq mshr miss latency
system.cpu.dcache.SoftPFReq_hits::.cpu.data           48                       # number of SoftPFReq hits
system.cpu.dcache.SoftPFReq_hits::total            48                       # number of SoftPFReq hits
system.cpu.dcache.SoftPFReq_misses::.cpu.data           23                       # number of SoftPFReq misses
system.cpu.dcache.SoftPFReq_misses::total           23                       # number of SoftPFReq misses
system.cpu.dcache.SoftPFReq_accesses::.cpu.data           71                       # number of SoftPFReq accesses(hits+misses)
system.cpu.dcache.SoftPFReq_accesses::total           71                       # number of SoftPFReq accesses(hits+misses)
system.cpu.dcache.SoftPFReq_miss_rate::.cpu.data     0.323944                       # miss rate for SoftPFReq accesses
system.cpu.dcache.SoftPFReq_miss_rate::total     0.323944                       # miss rate for SoftPFReq accesses
system.cpu.dcache.SoftPFReq_mshr_misses::.cpu.data           12                       # number of SoftPFReq MSHR misses
system.cpu.dcache.SoftPFReq_mshr_misses::total           12                       # number of SoftPFReq MSHR misses
system.cpu.dcache.SoftPFReq_mshr_miss_latency::.cpu.data      1514000                       # number of SoftPFReq MSHR miss cycles
system.cpu.dcache.SoftPFReq_mshr_miss_latency::total      1514000                       # number of SoftPFReq MSHR miss cycles
system.cpu.dcache.SoftPFReq_mshr_miss_rate::.cpu.data     0.169014                       # mshr miss rate for SoftPFReq accesses
system.cpu.dcache.SoftPFReq_mshr_miss_rate::total     0.169014                       # mshr miss rate for SoftPFReq accesses
system.cpu.dcache.SoftPFReq_avg_mshr_miss_latency::.cpu.data 126166.666667                       # average SoftPFReq mshr miss latency
system.cpu.dcache.SoftPFReq_avg_mshr_miss_latency::total 126166.666667                       # average SoftPFReq mshr miss latency
system.cpu.dcache.LoadLockedReq_hits::.cpu.data           34                       # number of LoadLockedReq hits
system.cpu.dcache.LoadLockedReq_hits::total           34                       # number of LoadLockedReq hits
system.cpu.dcache.LoadLockedReq_accesses::.cpu.data           34                       # number of LoadLockedReq accesses(hits+misses)
system.cpu.dcache.LoadLockedReq_accesses::total           34                       # number of LoadLockedReq accesses(hits+misses)
system.cpu.dcache.StoreCondReq_hits::.cpu.data           34                       # number of StoreCondReq hits
system.cpu.dcache.StoreCondReq_hits::total           34                       # number of StoreCondReq hits
system.cpu.dcache.StoreCondReq_accesses::.cpu.data           34                       # number of StoreCondReq accesses(hits+misses)
system.cpu.dcache.StoreCondReq_accesses::total           34                       # number of StoreCondReq accesses(hits+misses)
system.cpu.dcache.tags.pwrStateResidencyTicks::UNDEFINED 371441890000                       # Cumulative time (in ticks) in various power states
system.cpu.dcache.tags.tagsinuse           127.987745                       # Cycle average of tags in use
system.cpu.dcache.tags.total_refs            85067028                       # Total number of references to valid blocks.
system.cpu.dcache.tags.sampled_refs           1316094                       # Sample count of references to valid blocks.
system.cpu.dcache.tags.avg_refs             64.635982                       # Average number of references to valid blocks.
system.cpu.dcache.tags.warmup_cycle            258000                       # Cycle when the warmup percentage was hit.
system.cpu.dcache.tags.occ_blocks::.cpu.data   127.987745                       # Average occupied blocks per requestor
system.cpu.dcache.tags.occ_percent::.cpu.data     0.999904                       # Average percentage of cache occupancy
system.cpu.dcache.tags.occ_percent::total     0.999904                       # Average percentage of cache occupancy
system.cpu.dcache.tags.occ_task_id_blocks::1024          128                       # Occupied blocks per task id
system.cpu.dcache.tags.age_task_id_blocks_1024::0           36                       # Occupied blocks per task id
system.cpu.dcache.tags.age_task_id_blocks_1024::1           92                       # Occupied blocks per task id
system.cpu.dcache.tags.occ_task_id_percent::1024            1                       # Percentage of cache occupancy per task id
system.cpu.dcache.tags.tag_accesses        1383431422                       # Number of tag accesses
system.cpu.dcache.tags.data_accesses       1383431422                       # Number of data accesses
system.cpu.itb.walker.pwrStateResidencyTicks::UNDEFINED 371441890000                       # Cumulative time (in ticks) in various power states
system.cpu.itb.stage2_mmu.stage2_tlb.walker.pwrStateResidencyTicks::UNDEFINED 371441890000                       # Cumulative time (in ticks) in various power states

---------- End Simulation Statistics   ----------
